*MODEL INPUT FILE            B     1     1     1   999     0
*FILES              
MODEL          MZCER047
FILEX          ITSA1301.SGX                                                                                 
FILEA          ITSA1301.SGA                                                                                 
FILET          ITSA1301.SGT                                                                                 
SPECIES        MZCER047.SPE C:\DSSAT47\GENOTYPE\                                                            
ECOTYPE        MZCER047.ECO C:\DSSAT47\GENOTYPE\                                                            
CULTIVAR       MZCER047.CUL C:\DSSAT47\GENOTYPE\                                                            
PESTS          MZCER047.PST C:\DSSAT47\PEST\                                                                
SOILS          XX.SOL                                                                                       
WEATHER        BEOU1401.WTH                                                                                 
OUTPUT         OVERVIEW
*SIMULATION CONTROL 
                   1     1     S 2014175  2150 CSM335                   
                   Y     Y     N     N     N     N     N     N     M
                   M     M     E     R     S     R     R     1     P     S     2     D     0
                   R     N     R     N     R
                   N     Y     Y     1     Y     N     Y     Y     N     N     Y     N     N
!AUTOMATIC MANAGEM  
               2005161 2005175   40.  100.   30.   40.   10.
                 30.   50.  100. GS000 IR001  10.0 1.000
                 30.   50.   25. FE001 GS000
                100.     1   20.
                     0 2014330  100.    0.
*EXP.DETAILS        
  1ITSA1301 SG CALIBRATION SETUP OF SORGHUM SOWING DATES                   
*TREATMENTS         
  1 1 0 0             CSM335_date_1
*CULTIVARS          
   MZ IM0005 APPOLO(BEN)     
*FIELDS             
   ITSA2013 BEOU1401   0.0    0. DR000    0. 100.0 00000 SL     172. XXBEOU0101
           1.00000         0.00000      0.00               3.0    6.   8.0   0.0 FH201     0
*INITIAL CONDITIONS 
   MZ    2014175   500     0  1.00  1.00   0.0     0  0.00  0.00    0.    0.
      5. 0.130 0.600  3.80
     15. 0.130 0.600  3.80
     30. 0.130 0.600  3.80
     45. 0.130 0.600  3.80
     60. 0.130 0.600  3.80
*PLANTING DETAILS   
   2014185     -99   6.2   6.2     S     R   75.    0.   3.0  -99.  -99. -99.0 -99.0   0.0
*IRRIGATION         
   1.000   30.   50.  100. GS000 IR001  10.0
   2010177 IR002  27.9
*FERTILIZERS        
   2014186 FE006 AP002    2.    0.    0.  -99.  -99.  -99. -99  
*RESIDUES           
*CHEMICALS          
*TILLAGE            
*ENVIRONMENT        
*HARVEST            
   2014330 GS000 -99   -99    100.    0.
*SOIL               
 XXBEOU0101              SL     172.                                                   
 XXBEOU0101     NoCountr  10.820   1.070  Classification francaise                         
 R      0.30   6.0  0.60   30.  1.00  1.00 IB001 IB001 IB001 -99  
    5.       0.076 0.280 0.445 1.000  2.59  1.40 0.900   7.0  15.0   0.0 0.019  5.00-99.00  5.00-99.00
   15.       0.076 0.280 0.445 1.000  2.59  1.40 0.900   7.0  15.0   0.0 0.019  5.00-99.00  5.00-99.00
   30.       0.076 0.280 0.445 1.000  2.59  1.40 0.900   7.0  15.0   0.0 0.019  5.00-99.00  5.00-99.00
   45.       0.076 0.280 0.445 1.000  2.59  1.40 -99.0   7.0  15.0   0.0   0.0  5.00-99.00  5.00-99.00
   60.       0.076 0.280 0.445 1.000  2.59  1.40 -99.0   7.0  15.0   0.0   0.0  5.00-99.00  5.00-99.00
                    
    5.-99.00 -99.0 -99.0 -99.0 -99.0 -99.0 -99.0 -99.0 -99.0 -99.0-99.00 -99.0 -99.0 -99.0 -99.0 -99.0  -99.
   15.-99.00 -99.0 -99.0 -99.0 -99.0 -99.0 -99.0 -99.0 -99.0 -99.0-99.00 -99.0 -99.0 -99.0 -99.0 -99.0  -99.
   30.-99.00 -99.0 -99.0 -99.0 -99.0 -99.0 -99.0 -99.0 -99.0 -99.0-99.00 -99.0 -99.0 -99.0 -99.0 -99.0  -99.
   45.-99.00 -99.0 -99.0 -99.0 -99.0 -99.0 -99.0 -99.0 -99.0 -99.0-99.00 -99.0 -99.0 -99.0 -99.0 -99.0  -99.
   60.-99.00 -99.0 -99.0 -99.0 -99.0 -99.0 -99.0 -99.0 -99.0 -99.0-99.00 -99.0 -99.0 -99.0 -99.0 -99.0  -99.
                    
    5.-99.00-99.00-99.00-99.00
   15.-99.00-99.00-99.00-99.00
   30.-99.00-99.00-99.00-99.00
   45.-99.00-99.00-99.00-99.00
   60.-99.00-99.00-99.00-99.00
*CULTIVAR           
IM0005 APPOLO(BEN)      IB0003  240.0 0.300 520.0 400.0 12.00 44.90
