*EXP.DETAILS: ITSA1301SG CALIBRATION SETUP OF SORGHUM SOWING DATES                   

*FILES
@N  EXP.DATA    AFILE        ADIR
  1 EXP         ITSA1301.SGA                                                                                 
@N  SPECIES     SPFILE       SPDIR
  1 SPE         MZCER047.SPE C:\DSSAT47\GENOTYPE\                                                            
@N  ECOTYPE     EFILE        EDIR
  1 ECO         MZCER047.ECO C:\DSSAT47\GENOTYPE\                                                            
@N  CULTIVAR    CFILE        CDIR
  1 CUL         MZCER047.CUL C:\DSSAT47\GENOTYPE\                                                            
@N  SOIL        SFILE        SDIR
  1 SOIL        XX.SOL                                                                                       
@N  WEATHER     WFILE        WDIR
  1 WEATH       ETBA1401.WTH                                                                                 

*SIMULATION CONTROL
@N  GENERAL     NYERS NREPS START   SDATE RSEED SNAME.................... MODEL...
  1 GE              1     1     S 2014128  2150 CSM335                    MZCER047
@N  OPTIONS     WATER NITRO SYMBI PHOSP POTAS DISES  CHEM  TILL   CO2
  1 OP              Y     Y     N     N     N     N     N     N     M
@N  METHODS     WTHER INCON LIGHT EVAPO INFIL PHOTO HYDRO NSWIT SOMDY MESEV MESOL METMP MEGHG
  1 ME              M     M     E     R     S     R     R     1     P     S     2     D     0
@N  MANAGEMENT  PLANT IRRIG FERTI RESID HARVS
  1 MA              R     N     R     N     R
@N  OUTPUTS     FNAME OVVEW SUMRY FROPT GROUT CAOUT WAOUT NIOUT MIOUT DIOUT  LONG CHOUT OPOUT
  1 OU              N     Y     Y     1     Y     N     Y     Y     N     N     Y     N     N

!AUTOMATIC MANAGEM
@N  PLANTING      PFRST   PLAST PH2OL PH2OU PH2OD PSTMX PSTMN
  1 PL          2005161 2005175   40.  100.   30.   40.   10.
@N  IRRIGATION  IMDEP ITHRL ITHRU IROFF IMETH IRAMT IREFF
  1 IR            30.   50.  100. GS000 IR001  10.0 1.000
@N  NITROGEN    NMDEP NMTHR NAMNT NCODE NAOFF
  1 NI            30.   50.   25. FE001 GS000
@N  RESIDUES    RIPCN RTIME RIDEP
  1 RE           100.     1   20.
@N  HARVEST     HFRST   HLAST HPCNP HRCNR
  1 HA              0 2014363  100.    0.

*TREATMENTS
@N   R O C TNAME....................  CU  FL  SA  IC  MP  MI  MF  MR  MC  MT  ME  MH  SM
  1  1 0 0             CSM335_date_1   1   1   0   1   1   1   1   0   0   0   0   1   1

*CULTIVARS
@C  CR INGENO CNAME
  1 MZ IM0006 APPOLO(ETH)     

*FIELDS
@L  ID_FIELD WSTA....  FLSA  FLOB  FLDT  FLDD  FLDS  FLST SLTX   SLDP ID_SOIL
  1 ITSA2013 ETBA1401   0.0    0. DR000    0.  100. 00000 SL     172. XXETBA0101
@L             XCRD            YCRD      ELEV              AREA  SLEN  FLWR  SLAS PRMGT
  1         1.00000         0.00000      0.00               3.0    6.   8.0   0.0 FH201     0

*INITIAL CONDITIONS
@C  PCR     ICDAT  ICRT  ICND  ICRN  ICRE  ICWD ICRES ICREN ICREP ICRIP ICRID
  1 MZ    2014128   500     0  1.00  1.00   0.0     0  0.00  0.00    0.    0.
@C   ICBL  SH2O  SNH4  SNO3
  1    5. 0.240   0.6   0.0
  1   15. 0.240   0.6   0.0
  1   30. 0.240   0.6   0.0
  1   60. 0.240   0.6   0.0
  1   90. 0.240   0.6   0.0
  1  120. 0.240   0.6   0.0

*PLANTING DETAILS
@P    PDATE   EDATE  PPOP  PPOE  PLME  PLDS  PLRS  PLRD  PLDP  PLWT  PAGE  PENV  PLPH  SPRL
  1 2014161     -99   4.1   4.1     S     R   75.    0.   3.0  -99.  -99. -99.0 -99.0   0.0

*IRRIGATION
@I   IEFF  IDEP  ITHR  IEPT  IOFF  IAME  IAMT
  1 1.000   30.   50.  100. GS000 IR001  10.0
@I    IDATE  IROP IRVAL
  1 2010177 IR002  27.9

*FERTILIZERS
@F    FDATE  FMCD  FACD  FDEP  FAMN  FAMP  FAMK  FAMC  FAMO  FOCD
  1 2014162 FE006 AP002    2.   18.   20.  -99.  -99.  -99. -99  
  1 2014162 FE006 AP002    2.   34.    0.  -99.  -99.  -99. -99  
  1 2014208 FE006 AP002    2.   34.    0.  -99.  -99.  -99. -99  

*RESIDUES
@R    RDATE  RCOD  RAMT  RESN  RESP  RESK  RINP  RDEP  RMET

*CHEMICALS
@C    CDATE CHCOD CHAMT  CHME CHDEP   CHT

*TILLAGE
@T    TDATE TIMPL  TDEP

*ENVIRONMENT
@E    ODATE  EDAY  ERAD  EMAX  EMIN ERAIN  ECO2  EDEW EWIND

*HARVEST
@H    HDATE  HSTG  HCOM HSIZE   HPC  HBPC
  1 2014363 GS000 -99   -99    100.    0.
