*MODEL INPUT FILE            B     1     1     1   999     0
*FILES              
MODEL          MZCER047
FILEX          ITSA1301.SGX                                                                                 
FILEA          ITSA1301.SGA                                                                                 
FILET          ITSA1301.SGT                                                                                 
SPECIES        MZCER047.SPE C:\DSSAT47\GENOTYPE\                                                            
ECOTYPE        MZCER047.ECO C:\DSSAT47\GENOTYPE\                                                            
CULTIVAR       MZCER047.CUL C:\DSSAT47\GENOTYPE\                                                            
PESTS          MZCER047.PST C:\DSSAT47\PEST\                                                                
SOILS          XX.SOL                                                                                       
WEATHER        ETBA1401.WTH                                                                                 
OUTPUT         OVERVIEW
*SIMULATION CONTROL 
                   1     1     S 2014128  2150 CSM335                   
                   Y     Y     N     N     N     N     N     N     M
                   M     M     E     R     S     R     R     1     P     S     2     D     0
                   R     N     R     N     R
                   N     Y     Y     1     Y     N     Y     Y     N     N     Y     N     N
!AUTOMATIC MANAGEM  
               2005161 2005175   40.  100.   30.   40.   10.
                 30.   50.  100. GS000 IR001  10.0 1.000
                 30.   50.   25. FE001 GS000
                100.     1   20.
                     0 2014363  100.    0.
*EXP.DETAILS        
  1ITSA1301 SG CALIBRATION SETUP OF SORGHUM SOWING DATES                   
*TREATMENTS         
  1 1 0 0             CSM335_date_1
*CULTIVARS          
   MZ IM0006 APPOLO(ETH)     
*FIELDS             
   ITSA2013 ETBA1401   0.0    0. DR000    0. 100.0 00000 SL     172. XXETBA0101
           1.00000         0.00000      0.00               3.0    6.   8.0   0.0 FH201     0
*INITIAL CONDITIONS 
   MZ    2014128   500     0  1.00  1.00   0.0     0  0.00  0.00    0.    0.
      5. 0.240 0.600   0.0
     15. 0.240 0.600   0.0
     30. 0.240 0.600   0.0
     60. 0.240 0.600   0.0
     90. 0.240 0.600   0.0
    120. 0.240 0.600   0.0
*PLANTING DETAILS   
   2014161     -99   4.1   4.1     S     R   75.    0.   3.0  -99.  -99. -99.0 -99.0   0.0
*IRRIGATION         
   1.000   30.   50.  100. GS000 IR001  10.0
   2010177 IR002  27.9
*FERTILIZERS        
   2014162 FE006 AP002    2.   18.   20.  -99.  -99.  -99. -99  
   2014162 FE006 AP002    2.   34.    0.  -99.  -99.  -99. -99  
   2014208 FE006 AP002    2.   34.    0.  -99.  -99.  -99. -99  
*RESIDUES           
*CHEMICALS          
*TILLAGE            
*ENVIRONMENT        
*HARVEST            
   2014363 GS000 -99   -99    100.    0.
*SOIL               
 XXETBA0101              SL     172.                                                   
 XXETBA0101     NoCountr   9.120  37.100  Classification francaise                         
 R      0.20   6.0  0.60   30.  1.00  1.00 IB001 IB001 IB001 -99  
    5.       0.243 0.373 0.445 1.000  2.59  1.42 1.800  70.0  20.0   0.0 0.054  5.00-99.00  5.00-99.00
   15.       0.243 0.373 0.445 1.000  2.59  1.42 1.800  70.0  20.0   0.0 0.054  5.00-99.00  5.00-99.00
   30.       0.243 0.373 0.445 1.000  2.59  1.42 1.800  70.0  20.0   0.0 0.054  5.00-99.00  5.00-99.00
   60.       0.243 0.373 0.445 1.000  2.59  1.42 -99.0  70.0  20.0   0.0   0.0  5.00-99.00  5.00-99.00
   90.       0.243 0.373 0.445 1.000  2.59  1.42 -99.0  70.0  20.0   0.0   0.0  5.00-99.00  5.00-99.00
  120.       0.243 0.373 0.445 1.000  2.59  1.42 -99.0  70.0  20.0   0.0   0.0  5.00-99.00  5.00-99.00
                    
    5.-99.00 -99.0 -99.0 -99.0 -99.0 -99.0 -99.0 -99.0 -99.0 -99.0-99.00 -99.0 -99.0 -99.0 -99.0 -99.0  -99.
   15.-99.00 -99.0 -99.0 -99.0 -99.0 -99.0 -99.0 -99.0 -99.0 -99.0-99.00 -99.0 -99.0 -99.0 -99.0 -99.0  -99.
   30.-99.00 -99.0 -99.0 -99.0 -99.0 -99.0 -99.0 -99.0 -99.0 -99.0-99.00 -99.0 -99.0 -99.0 -99.0 -99.0  -99.
   60.-99.00 -99.0 -99.0 -99.0 -99.0 -99.0 -99.0 -99.0 -99.0 -99.0-99.00 -99.0 -99.0 -99.0 -99.0 -99.0  -99.
   90.-99.00 -99.0 -99.0 -99.0 -99.0 -99.0 -99.0 -99.0 -99.0 -99.0-99.00 -99.0 -99.0 -99.0 -99.0 -99.0  -99.
  120.-99.00 -99.0 -99.0 -99.0 -99.0 -99.0 -99.0 -99.0 -99.0 -99.0-99.00 -99.0 -99.0 -99.0 -99.0 -99.0  -99.
                    
    5.-99.00-99.00-99.00-99.00
   15.-99.00-99.00-99.00-99.00
   30.-99.00-99.00-99.00-99.00
   60.-99.00-99.00-99.00-99.00
   90.-99.00-99.00-99.00-99.00
  120.-99.00-99.00-99.00-99.00
*CULTIVAR           
IM0006 APPOLO(ETH)      IB0006  340.0 0.400 580.0 455.0 13.00 70.00
