*MODEL INPUT FILE            B     1     1     1   999     0
*FILES              
MODEL          MZCER047
FILEX          ITSA1301.SGX                                                                                 
FILEA          ITSA1301.SGA                                                                                 
FILET          ITSA1301.SGT                                                                                 
SPECIES        MZCER047.SPE C:\DSSAT47\GENOTYPE\                                                            
ECOTYPE        MZCER047.ECO C:\DSSAT47\GENOTYPE\                                                            
CULTIVAR       MZCER047.CUL C:\DSSAT47\GENOTYPE\                                                            
PESTS          MZCER047.PST C:\DSSAT47\PEST\                                                                
SOILS          XX.SOL                                                                                       
WEATHER        GHKP0901.WTH                                                                                 
OUTPUT         OVERVIEW
*SIMULATION CONTROL 
                   1     1     S 2009104  2150 CSM335                   
                   Y     Y     N     N     N     N     N     N     M
                   M     M     E     R     S     R     R     1     P     S     2     D     0
                   R     N     R     N     R
                   N     Y     Y     1     Y     N     Y     Y     N     N     Y     N     N
!AUTOMATIC MANAGEM  
               2005161 2005175   40.  100.   30.   40.   10.
                 30.   50.  100. GS000 IR001  10.0 1.000
                 30.   50.   25. FE001 GS000
                100.     1   20.
                     0 2009250  100.    0.
*EXP.DETAILS        
  1ITSA1301 SG CALIBRATION SETUP OF SORGHUM SOWING DATES                   
*TREATMENTS         
  1 1 0 0             CSM335_date_1
*CULTIVARS          
   MZ GHKP00 OBATAMPA Agmip  
*FIELDS             
   ITSA2013 GHKP0901   0.0    0. DR000    0. 100.0 00000 SL     172. XXGHKP0101
           1.00000         0.00000      0.00               3.0    6.   8.0   0.0 FH201     0
*INITIAL CONDITIONS 
   MZ    2009104   500     0  1.00  1.00   0.0     0  0.00  0.00    0.    0.
      5. 0.280 0.600  1.93
     15. 0.280 0.600  1.93
     30. 0.280 0.600  1.93
     53. 0.280 0.600  1.93
     77. 0.280 0.600  1.93
    100. 0.280 0.600  1.93
*PLANTING DETAILS   
   2009105     -99   8.8   8.8     S     R   75.    0.   3.0  -99.  -99. -99.0 -99.0   0.0
*IRRIGATION         
   1.000   30.   50.  100. GS000 IR001  10.0
   2010177 IR002  27.9
*FERTILIZERS        
   2009124 FE006 AP002    2.    0.    0.  -99.  -99.  -99. -99  
   2009124 FE006 AP002    2.    0.    9.  -99.  -99.  -99. -99  
   2009124 FE006 AP002    2.   40.    0.  -99.  -99.  -99. -99  
   2009152 FE006 AP002    2.   40.    0.  -99.  -99.  -99. -99  
*RESIDUES           
*CHEMICALS          
*TILLAGE            
*ENVIRONMENT        
*HARVEST            
   2009250 GS000 -99   -99    100.    0.
*SOIL               
 XXGHKP0101              SL     172.                                                   
 XXGHKP0101     NoCountr   6.160   0.060  Classification francaise                         
 R      0.20   6.0  0.60   30.  1.00  1.00 IB001 IB001 IB001 -99  
    5.       0.260 0.342 0.445 1.000  2.59  1.49 1.800  70.0  20.0   0.0 0.050  5.00-99.00  5.00-99.00
   15.       0.260 0.342 0.445 1.000  2.59  1.49 1.800  70.0  20.0   0.0 0.050  5.00-99.00  5.00-99.00
   30.       0.260 0.342 0.445 1.000  2.59  1.49 1.800  70.0  20.0   0.0 0.050  5.00-99.00  5.00-99.00
   53.       0.260 0.342 0.445 1.000  2.59  1.48 -99.0  70.0  20.0   0.0   0.0  5.00-99.00  5.00-99.00
   77.       0.260 0.342 0.445 1.000  2.59  1.49 -99.0  70.0  20.0   0.0   0.0  5.00-99.00  5.00-99.00
  100.       0.260 0.342 0.445 1.000  2.59  1.48 -99.0  70.0  20.0   0.0   0.0  5.00-99.00  5.00-99.00
                    
    5.-99.00 -99.0 -99.0 -99.0 -99.0 -99.0 -99.0 -99.0 -99.0 -99.0-99.00 -99.0 -99.0 -99.0 -99.0 -99.0  -99.
   15.-99.00 -99.0 -99.0 -99.0 -99.0 -99.0 -99.0 -99.0 -99.0 -99.0-99.00 -99.0 -99.0 -99.0 -99.0 -99.0  -99.
   30.-99.00 -99.0 -99.0 -99.0 -99.0 -99.0 -99.0 -99.0 -99.0 -99.0-99.00 -99.0 -99.0 -99.0 -99.0 -99.0  -99.
   53.-99.00 -99.0 -99.0 -99.0 -99.0 -99.0 -99.0 -99.0 -99.0 -99.0-99.00 -99.0 -99.0 -99.0 -99.0 -99.0  -99.
   77.-99.00 -99.0 -99.0 -99.0 -99.0 -99.0 -99.0 -99.0 -99.0 -99.0-99.00 -99.0 -99.0 -99.0 -99.0 -99.0  -99.
  100.-99.00 -99.0 -99.0 -99.0 -99.0 -99.0 -99.0 -99.0 -99.0 -99.0-99.00 -99.0 -99.0 -99.0 -99.0 -99.0  -99.
                    
    5.-99.00-99.00-99.00-99.00
   15.-99.00-99.00-99.00-99.00
   30.-99.00-99.00-99.00-99.00
   53.-99.00-99.00-99.00-99.00
   77.-99.00-99.00-99.00-99.00
  100.-99.00-99.00-99.00-99.00
*CULTIVAR           
GHKP00 OBATAMPA Agmip   IB0005  320.0 0.500 750.0 650.0 10.50 78.00
