*MODEL INPUT FILE            B     1     1     1   999     0
*FILES              
MODEL          MZCER047
FILEX          ITSA1301.SGX                                                                                 
FILEA          ITSA1301.SGA                                                                                 
FILET          ITSA1301.SGT                                                                                 
SPECIES        MZCER047.SPE C:\DSSAT47\GENOTYPE\                                                            
ECOTYPE        MZCER047.ECO C:\DSSAT47\GENOTYPE\                                                            
CULTIVAR       MZCER047.CUL C:\DSSAT47\GENOTYPE\                                                            
PESTS          MZCER047.PST C:\DSSAT47\PEST\                                                                
SOILS          XX.SOL                                                                                       
WEATHER        MANT0901.WTH                                                                                 
OUTPUT         OVERVIEW
*SIMULATION CONTROL 
                   1     1     S 2009157  2150 CSM335                   
                   Y     Y     N     N     N     N     N     N     M
                   M     M     E     R     S     R     R     1     P     S     2     D     0
                   R     N     R     N     R
                   N     Y     Y     1     Y     N     Y     Y     N     N     Y     N     N
!AUTOMATIC MANAGEM  
               2005161 2005175   40.  100.   30.   40.   10.
                 30.   50.  100. GS000 IR001  10.0 1.000
                 30.   50.   25. FE001 GS000
                100.     1   20.
                     0 2009308  100.    0.
*EXP.DETAILS        
  1ITSA1301 SG CALIBRATION SETUP OF SORGHUM SOWING DATES                   
*TREATMENTS         
  1 1 0 0             CSM335_date_1
*CULTIVARS          
   MZ IM0008 APPOLO(Mali)    
*FIELDS             
   ITSA2013 MANT0901   0.0    0. DR000    0. 100.0 00000 SL     172. XXMANT0101
           1.00000         0.00000      0.00               3.0    6.   8.0   0.0 FH201     0
*INITIAL CONDITIONS 
   MZ    2009157   500     0  1.00  1.00   0.0     0  0.00  0.00    0.    0.
      5. 0.190 0.600  1.67
     15. 0.190 0.600  1.67
     30. 0.190 0.600  1.67
     60. 0.190 0.600  1.67
     90. 0.190 0.600  1.67
    120. 0.190 0.600  1.67
*PLANTING DETAILS   
   2009163     -99   6.2   6.2     S     R   75.    0.   3.0  -99.  -99. -99.0 -99.0   0.0
*IRRIGATION         
   1.000   30.   50.  100. GS000 IR001  10.0
   2010177 IR002  27.9
*FERTILIZERS        
   2009164 FE006 AP002    2.   39.   26.  -99.  -99.  -99. -99  
   2009203 FE006 AP002    2.   46.    0.  -99.  -99.  -99. -99  
*RESIDUES           
      9157 RE003  3000  1.60  0.35  0.00  100.   15. -99  
*CHEMICALS          
*TILLAGE            
*ENVIRONMENT        
*HARVEST            
   2009308 GS000 -99   -99    100.    0.
*SOIL               
 XXMANT0101              SL     172.                                                   
 XXMANT0101     NoCountr  12.580  -5.700  Classification francaise                         
 R      0.30   6.0  0.60   30.  1.00  1.00 IB001 IB001 IB001 -99  
    5.       0.116 0.249 0.445 1.000  2.59  1.66 1.200   7.0  15.0   0.0 0.015  5.00-99.00  5.00-99.00
   15.       0.116 0.249 0.445 1.000  2.59  1.66 1.200   7.0  15.0   0.0 0.015  5.00-99.00  5.00-99.00
   30.       0.116 0.249 0.445 1.000  2.59  1.66 1.200   7.0  15.0   0.0 0.015  5.00-99.00  5.00-99.00
   60.       0.116 0.249 0.445 1.000  2.59  1.66 -99.0   7.0  15.0   0.0   0.0  5.00-99.00  5.00-99.00
   90.       0.116 0.249 0.445 1.000  2.59  1.66 -99.0   7.0  15.0   0.0   0.0  5.00-99.00  5.00-99.00
  120.       0.116 0.249 0.445 1.000  2.59  1.66 -99.0   7.0  15.0   0.0   0.0  5.00-99.00  5.00-99.00
                    
    5.-99.00 -99.0 -99.0 -99.0 -99.0 -99.0 -99.0 -99.0 -99.0 -99.0-99.00 -99.0 -99.0 -99.0 -99.0 -99.0  -99.
   15.-99.00 -99.0 -99.0 -99.0 -99.0 -99.0 -99.0 -99.0 -99.0 -99.0-99.00 -99.0 -99.0 -99.0 -99.0 -99.0  -99.
   30.-99.00 -99.0 -99.0 -99.0 -99.0 -99.0 -99.0 -99.0 -99.0 -99.0-99.00 -99.0 -99.0 -99.0 -99.0 -99.0  -99.
   60.-99.00 -99.0 -99.0 -99.0 -99.0 -99.0 -99.0 -99.0 -99.0 -99.0-99.00 -99.0 -99.0 -99.0 -99.0 -99.0  -99.
   90.-99.00 -99.0 -99.0 -99.0 -99.0 -99.0 -99.0 -99.0 -99.0 -99.0-99.00 -99.0 -99.0 -99.0 -99.0 -99.0  -99.
  120.-99.00 -99.0 -99.0 -99.0 -99.0 -99.0 -99.0 -99.0 -99.0 -99.0-99.00 -99.0 -99.0 -99.0 -99.0 -99.0  -99.
                    
    5.-99.00-99.00-99.00-99.00
   15.-99.00-99.00-99.00-99.00
   30.-99.00-99.00-99.00-99.00
   60.-99.00-99.00-99.00-99.00
   90.-99.00-99.00-99.00-99.00
  120.-99.00-99.00-99.00-99.00
*CULTIVAR           
IM0008 APPOLO(Mali)     IB0005  200.0 0.300 660.0 525.0  8.00 74.90
